CRYSTAL
PRIMVEC
 11.99569454956723 0.00000000000000 0.00000000000000
 -0.00178422214409 14.88829109491973 0.00000000000000
 -2.89719325714199 0.00066230801781 14.05720757512649
PRIMCOORD
 128 1
 13    -1.44948873964276     7.44447670146907     7.02860378756329
 13     7.53033859673343     6.39942769855570     7.92550025090860
 13     4.54835853514070     7.44447670146909     7.02860378756363
  8     8.72682287666157     5.11836724006258     8.67809668967258
  8     1.36776248229237    13.17953699673972    11.90716457066438
  8     8.81121843194667     6.92904734525025     6.65748004990703
  1     8.78187030519157     6.34193308931363     5.89480016228372
  8    -0.44261677826348     0.27547756519845    11.87663296245223
  8     6.35665812509539     7.66476364489456     7.26838866275186
  1     6.74799824869219     8.18556248147742     6.56025815070343
  8    -1.20679134180596     6.00912992548930     8.34725450042250
  8     2.13725318492248     9.81496114331230     7.45048270273711
  8    -2.31901778434356     1.22454054153330    12.68561558198369
  8     4.29693024670837     9.20443929572680     7.77941775776785
  8     3.38019646115260    14.09833984564828    12.33000425204447
  7     4.58349527726469    11.06820133636568     9.77529055377160
  1     5.46634186130131    10.56852616377621     9.64650431370054
  7     4.48796227738308    11.97962691469211    10.75045212682464
  7     0.11638393550419     2.86381008664118    10.73432627715260
  7    -0.12643078687852     3.90747567873936     9.92575281179957
  1     0.65380099159801     4.46649862670241     9.59481026023681
  6    -2.11959512952515     3.12895257524498    10.42536535673549
  1     8.80924046546590     2.98473101429013    10.47389245656484
  6     9.98136643136208     5.16140455997219     8.83350942563325
  6     3.26409660750791     9.89140144839077     8.03032992181284
  6    -1.28958219941375     1.20340262378949    11.93548001098909
  6     2.61508643535680    13.29416176863310    11.72366783884291
  6     2.47567853516367    11.69859683202626     9.72089681595745
  1     1.43296421630354    11.80409127767395     9.47113699543561
  6    -1.10810390626852     2.37724457371168    11.04750593509937
  6    -1.45792415392828     4.10376294400638     9.69364077369506
  6     3.18970795469337    12.37075146756553    10.72877252627345
  6     3.40219093129557    10.86868596052758     9.11375498096944
 13    11.99569454956684     0.00000000000051     0.00000000000000
 13     0.11738396993418    13.84457252340669    13.16097564918733
 13     5.99784727478319     0.00000000000095     0.00000000000000
  8    -1.07901839617686    12.56358185235014    12.40728769040634
  8     6.27984221838177     5.73360625017362     9.17901057004189
  8     1.73310867095741    14.37251179088196     0.37106252002438
  1     1.76137479240797    13.78481453103004     1.13336379763921
  8     8.09281479763878     7.71800489831513     9.21038329089929
  8     1.29232112452413     0.22205579146596    13.81869973357196
  1     3.79896996308279     0.74018859557944     0.47164872156668
  8     8.85435294748642    13.45333743250001    12.73895818434523
  8     5.51195978358004     2.37099499032816    13.63545588511072
  8     9.96758178096107     8.66858177094860     8.39962532387823
  8     3.35120108001640     1.76238565316845    13.31093845784734
  8     4.26673026832833     6.64985625458772     8.75341835015622
  7     3.06416254765156     3.62253229383272    11.31186344485731
  1     2.18123462472914     3.12340202024831    11.44175779653486
  7     3.15949289871967     4.53265269279917    10.33544345938809
  7     7.53173955114522    10.30726980362361    10.35159819605497
  7     7.77450655671131    11.35135812797840    11.15987139807327
  1     6.99464777651425    11.91064681632210    11.49088082668533
  6     9.76756885665928    10.57351233219050    10.65992422658464
  1    -1.16141931799550    10.42914129256526    10.61197874688721
  6    -2.33358223429509    12.60617213737620    12.25209693918701
  6     4.38422244492562     2.44793979877010    13.05759072681691
  6     8.93875934509704     8.64686396797226     9.15051405649278
  6     5.03214303885410     5.84701042671831     9.36099033759382
  6     5.17184911625822     4.25324108855546    11.36503998287524
  1     6.21464564721127     4.35866843352674    11.61436663350336
  6     8.75636489221611     9.82106021809290    10.03818432341527
  6     9.10589455911674    11.54832158186013    11.39160902910329
  6     4.45767986921365     4.92397286710421    10.35646356620183
  6     4.24555649951250     3.42410674057816    11.97337316335649
 13     1.56637847354771     8.48952570438185     6.13170732421790
  8     0.36989419361962     9.77058616287498     5.37911088545392
  8     7.72895458798877     1.70941640619783     2.15004300446211
  8     0.28549863833447     7.95990605768730     7.39972752521946
  1     0.31484676508961     8.54702031362389     8.16240741284278
  8     9.53933384854462    14.61347583773909     2.18057461267426
  8     2.74005894518575     7.22418975804298     6.78881891237463
  1     2.34871882158895     6.70339092146013     7.49694942442306
  8    10.30350841208710     8.87982347744825     5.70995307470399
  8     6.95946388535866     5.07399225962525     6.60672487238938
  8    11.41573485462469    13.66441286140424     1.37159199314282
  8     4.79978682357278     5.68451410721075     6.27778981735864
  8     5.71652060912854     0.79061355728927     1.72720332308203
  7     4.51322179301645     3.82075206657187     4.28191702135489
  1     3.63037520897983     4.32042723916134     4.41070326142596
  7     4.60875479289806     2.90932648824544     3.30675544830186
  7     8.98033313477695    12.02514331629637     3.32288129797389
  7     9.22314785715966    10.98147772419819     4.13145476332693
  1     8.44291607868254    10.42245477623504     4.46239731488964
  6    11.21631219980629    11.76000082769256     3.63184221839101
  1     0.28747660481524    11.90422238864742     3.58331511856165
  6    -0.88464936108094     9.72754884296535     5.22369814949325
  6     5.83262046277324     4.99755195454678     6.02687765331366
  6    10.38629926969489    13.68555077914805     2.12172756413741
  6     6.48163063492434     1.59479163430445     2.33353973628359
  6     6.62103853511747     3.19035657091129     4.33631075916905
  1     7.66375285397760     3.08486212526360     4.58607057969088
  6    10.20482097654966    12.51170882922587     3.00970164002712
  6    10.55464122420942    10.78519045893116     4.36356680143143
  6     5.90700911558777     2.51820193537202     3.32843504885305
  6     5.69452613898557     4.02026744240996     4.94345259415706
 13     8.97933310034696     1.04438087953086     0.89623192593916
  8    10.17573546645801     2.32537155058741     1.64991988472016
  8     2.81687485189938     9.15534715276392     4.87819700508460
  8     7.36360839932374     0.51644161205559    13.68614505510211
  1     7.33534227787307     1.10413887190733    12.92384377748730
  8     1.00390227264237     7.17094850462242     4.84682428422721
  8     7.80439594575691    14.66689761147117     0.23850784155455
  1     5.29774710719832    14.14876480735794    13.58555885355983
  8     0.24236412279449     1.43561597043749     1.31824939078125
  8     3.58475728670111    12.51795841260939     0.42175169001577
  8    -0.87086471067993     6.22037163198894     5.65758225124826
  8     5.74551599026473    13.12656774976916     0.74626911727914
  8     4.82998680195281     8.23909714834983     5.30378922497028
  7     6.03255452262958    11.26642110910483     2.74534413026918
  1     6.91548244555201    11.76555138268925     2.61544977859162
  7     5.93722417156147    10.35630071013837     3.72176411573840
  7     1.56497751913592     4.58168359931394     3.70560937907152
  7     1.32221051356984     3.53759527495914     2.89733617705323
  1     2.10206929376687     2.97830658661546     2.56632674844115
  6    -0.67085178637814     4.31544107074705     3.39728334854186
  1    10.25813638827676     4.45981211037227     3.44522882823930
  6    11.43029930457623     2.28278126556135     1.80511063593949
  6     4.71249462535552    12.44101360416745     0.99961684830959
  6     0.15795772518410     6.24208943496529     4.90669351863371
  6     4.06457403142711     9.04194297621930     4.69621723753263
  6     3.92486795402292    10.63571231438209     2.69216759225125
  1     2.88207142306987    10.53028496941080     2.44284094162314
  6     0.34035217806503     5.06789318484465     4.01902325171122
  6    -0.00917748883560     3.34063182107742     2.66559854602320
  6     4.63903720106749     9.96498053583334     3.70074400892467
  6     4.85116057076864    11.46484666235939     2.08383441177000
