CRYSTAL
PRIMVEC
 11.99569454956723 0.00000000000000 0.00000000000000
 -0.00178422214409 14.88829109491973 0.00000000000000
 -2.89719325714199 0.00066230801781 14.05720757512649
PRIMCOORD
 137 1
 13    10.54620580992447     7.44447670146907     7.02860378756329
 13     7.53033859673343     6.39942769855570     7.92550025090860
 13     4.54835853514069     7.44447670146908     7.02860378756362
  8     8.72682287666156     5.11836724006258     8.67809668967258
  8     1.36776248229236    13.17953699673973    11.90716457066439
  8     8.81121843194667     6.92904734525024     6.65748004990703
  1     8.78187030519157     6.34193308931364     5.89480016228372
  8    11.55307777130376     0.27547756519845    11.87663296245223
  8     6.35665812509540     7.66476364489457     7.26838866275186
  1     6.74799824869219     8.18556248147742     6.56025815070344
  8    10.78890320776126     6.00912992548929     8.34725450042250
  8     2.13725318492248     9.81496114331230     7.45048270273711
  8     9.67667676522366     1.22454054153331    12.68561558198369
  8     4.29693024670836     9.20443929572679     7.77941775776785
  8     3.38019646115261    14.09833984564827    12.33000425204446
  7     4.58349527726470    11.06820133636569     9.77529055377161
  1     5.46634186130131    10.56852616377621     9.64650431370054
  7     4.48796227738308    11.97962691469212    10.75045212682464
  7    12.11207848507142     2.86381008664118    10.73432627715260
  7    11.86926376268870     3.90747567873936     9.92575281179957
  1    12.64949554116524     4.46649862670241     9.59481026023681
  6     9.87609942004208     3.12895257524498    10.42536535673549
  1     8.80924046546590     2.98473101429013    10.47389245656485
  6     9.98136643136208     5.16140455997219     8.83350942563325
  6     3.26409660750790     9.89140144839077     8.03032992181284
  6    10.70611235015348     1.20340262378950    11.93548001098908
  6     2.61508643535680    13.29416176863309    11.72366783884291
  6     2.47567853516366    11.69859683202626     9.72089681595745
  1     1.43296421630353    11.80409127767395     9.47113699543561
  6    10.88759064329871     2.37724457371167    11.04750593509937
  6    10.53777039563896     4.10376294400638     9.69364077369505
  6     3.18970795469338    12.37075146756553    10.72877252627345
  6     3.40219093129557    10.86868596052759     9.11375498096943
 13   -11.99747877171171    14.88829109492025     0.00000000000000
 13    -8.98111732249105    13.84391021538888    -0.89623192593916
 13    -5.99963149692812    14.88829109492069    -0.00000000000000
  8   -10.17751968860210    12.56291954433232    -1.64991988472015
  8    -2.82044329618755    20.62123503707555    -4.87819700508460
  8   -10.26258587860981    14.37251179088195     0.37106252002437
  1   -10.23431975715926    13.78481453103004     1.13336379763921
  8   -13.00138104435368     7.71734259029731    -4.84682428422722
  8    -7.80796439004519    15.10968457836789    -0.23850784155453
  1    -8.19850880862853    15.62847969049917     0.47164872156668
  8   -12.23984289450604    13.45267512448219    -1.31824939078126
  8    -3.58832573098929    17.25862377723009    -0.42175169001577
  8   -11.12661406103138     8.66791946293079    -5.65758225124826
  8    -5.74908443455292    16.65001444007038    -0.74626911727915
  8    -4.83355524624098    21.53748504148963    -5.30378922497027
  7    -6.03612296691776    18.51016108073464    -2.74534413026918
  1    -6.91905088984019    18.01103080715023    -2.61544977859163
  7    -5.94079261584965    19.42028147970109    -3.72176411573840
  7   -13.56245629084724    10.30660749560579    -3.70560937907152
  7   -13.31968928528115    11.35069581996059    -2.89733617705323
  1   -14.09954806547821    11.90998450830429    -2.56632674844117
  6   -11.32662698533318    10.57285002417269    -3.39728334854186
  1   -10.25992061042073    10.42847898454744    -3.44522882823928
  6   -11.43208352672033    12.60550982935839    -1.80511063593949
  6    -4.71606306964370    17.33556858567201    -0.99961684830959
  6   -12.15543649689541     8.64620165995445    -4.90669351863371
  6    -4.06814247571522    20.73463921362023    -4.69621723753267
  6    -3.92843639831111    19.14086987545738    -2.69216759225126
  1    -2.88563986735804    19.24629722042867    -2.44284094162315
  6   -12.33783094977635     9.82039791007508    -4.01902325171122
  6   -11.98830128287572    11.54765927384232    -2.66559854602320
  6    -4.64260564535567    19.81160165400613    -3.70074400892466
  6    -4.85472901505682    18.31173552748007    -2.08383441177000
 13    -7.53033859673343    -6.39942769855570    -7.92550025090860
  8    -8.72682287666151    -5.11836724006257    -8.67809668967258
  8    -1.36776248229236   -13.17953699673973   -11.90716457066439
  8    -8.81121843194667    -6.92904734525024    -6.65748004990703
  1    -8.78187030519154    -6.34193308931366    -5.89480016228372
  8   -11.55307777130376    -0.27547756519846   -11.87663296245223
  8    -6.35665812509540    -7.66476364489457    -7.26838866275186
  1    -6.74799824869219    -8.18556248147742    -6.56025815070344
  8   -10.78890320776126    -6.00912992548929    -8.34725450042250
  8    -2.13725318492248    -9.81496114331230    -7.45048270273711
  8    -9.67667676522367    -1.22454054153330   -12.68561558198368
  8    -4.29693024670836    -9.20443929572679    -7.77941775776785
  8    -3.38019646115261   -14.09833984564827   -12.33000425204446
  7    -4.58349527726470   -11.06820133636569    -9.77529055377161
  1    -5.46634186130131   -10.56852616377621    -9.64650431370054
  7    -4.48796227738308   -11.97962691469212   -10.75045212682464
  7   -12.11207848507142    -2.86381008664118   -10.73432627715260
  7   -11.86926376268870    -3.90747567873936    -9.92575281179957
  1   -12.64949554116583    -4.46649862670252    -9.59481026023685
  6    -9.87609942004208    -3.12895257524498   -10.42536535673549
  1    -8.80924046546590    -2.98473101429013   -10.47389245656485
  6    -9.98136643136208    -5.16140455997219    -8.83350942563325
  6    -3.26409660750790    -9.89140144839077    -8.03032992181284
  6   -10.70611235015348    -1.20340262378950   -11.93548001098908
  6    -2.61508643535680   -13.29416176863309   -11.72366783884291
  6    -2.47567853516366   -11.69859683202626    -9.72089681595745
  1    -1.43296421630353   -11.80409127767395    -9.47113699543561
  6   -10.88759064329871    -2.37724457371167   -11.04750593509937
  6   -10.53777039563896    -4.10376294400638    -9.69364077369505
  6    -3.18970795469338   -12.37075146756553   -10.72877252627345
  6    -3.40219093129557   -10.86868596052759    -9.11375498096943
 13     8.98111732249105   -13.84391021538888     0.89623192593916
  8    10.17751968860210   -12.56291954433232     1.64991988472015
  8     2.82044329618755   -20.62123503707555     4.87819700508460
  8    10.26258587860981   -14.37251179088195    -0.37106252002437
  1    10.23431975715916   -13.78481453103022    -1.13336379763920
  8    13.00138104435368    -7.71734259029731     4.84682428422722
  8     7.80796439004509   -15.10968457836830     0.23850784155454
  1     8.19850880862849   -15.62847969049933    -0.47164872156667
  8    12.23984289450581   -13.45267512448224     1.31824939078125
  8     3.58832573098929   -17.25862377723009     0.42175169001577
  8    11.12661406103138    -8.66791946293079     5.65758225124826
  8     5.74908443455292   -16.65001444007031     0.74626911727914
  8     4.83355524624098   -21.53748504148963     5.30378922497027
  7     6.03612296691776   -18.51016108073464     2.74534413026918
  1     6.91905088984018   -18.01103080715021     2.61544977859162
  7     5.94079261584965   -19.42028147970109     3.72176411573840
  7    13.56245629084724   -10.30660749560579     3.70560937907152
  7    13.31968928528115   -11.35069581996059     2.89733617705323
  1    14.09954806547819   -11.90998450830427     2.56632674844116
  6    11.32662698533318   -10.57285002417269     3.39728334854186
  1    10.25992061042085   -10.42847898454746     3.44522882823930
  6    11.43208352672033   -12.60550982935839     1.80511063593949
  6     4.71606306964370   -17.33556858567201     0.99961684830959
  6    12.15543649689541    -8.64620165995445     4.90669351863371
  6     4.06814247571528   -20.73463921362017     4.69621723753264
  6     3.92843639831111   -19.14086987545738     2.69216759225126
  1     2.88563986735804   -19.24629722042867     2.44284094162315
  6    12.33783094977635    -9.82039791007508     4.01902325171122
  6    11.98830128287572   -11.54765927384232     2.66559854602320
  6     4.64260564535567   -19.81160165400613     3.70074400892466
  6     4.85472901505682   -18.31173552748007     2.08383441177000
  8     7.99657173789304    13.58977251276041     8.52760502245714
  1     8.64808225117732    14.29104141915355     8.57502476524669
  1     8.51335569565204    12.78267163590955     8.53150060835944
  8     1.34186516710586     6.30315559454664    11.63518717180456
  1     1.75046277111463     7.16148383824455    11.75689700735109
  1     2.04690459420430     5.67654177822104    11.80479610855780
  8     6.65293697192591    10.84714565182952     2.64136439190342
  1     6.90908629727566    11.75793691262323     2.48859180802572
  1     7.43571874962806    10.43778569782927     3.01307634565036
